

Version,                  
    8.6;                      

SimulationControl,        
    Yes,                      
    Yes,                      
    Yes,                      
    Yes,                      
    Yes;                      

Building,                 
    Central House,            
    32.0,                     
    ,                         
    0.07,                     
    0.2,                      
    ,                         
    25,                       
    ;                         

ShadowCalculation,        
    AverageOverDaysInFrequency,    
    30,                       
    15000;                    

SurfaceConvectionAlgorithm:Inside,
    TARP;                     

SurfaceConvectionAlgorithm:Outside,
    DOE-2;                    

HeatBalanceAlgorithm,     
    ConductionTransferFunction,    
    200.0;                    

ZoneAirHeatBalanceAlgorithm,
    ThirdOrderBackwardDifference;    

ZoneAirContaminantBalance,
    No;                       

ZoneCapacitanceMultiplier:ResearchSpecial,
    ,                         
    ,                         
    ,                         
    ;                         

Timestep,                 
    4;                        

ConvergenceLimits,        
    1;                        

Site:Location,            
    LONDON/GATWICK,           
    51.15,                    
    -0.18,                    
    0.0,                      
    62.0;                     

SizingPeriod:DesignDay,   
    LONDON/GATWICK Ann Clg .4% Condns DB=>MWB,    
    7,                        
    21,                       
    SummerDesignDay,          
    27.2,                     
    9.7,                      
    DefaultMultipliers,       
    ,                         
    Wetbulb,                  
    18.7,                     
    ,                         
    ,                         
    ,                         
    ,                         
    100582.0,                 
    3.5,                      
    90.0,                     
    No,                       
    No,                       
    No,                       
    ASHRAETau,                
    ,                         
    ,                         
    0.455,                    
    1.974;                    

SizingPeriod:DesignDay,   
    LONDON/GATWICK Ann Htg 99.6% Condns DB,    
    2,                        
    21,                       
    WinterDesignDay,          
    -4.6,                     
    0.0,                      
    DefaultMultipliers,       
    ,                         
    Wetbulb,                  
    -4.6,                     
    ,                         
    ,                         
    ,                         
    ,                         
    100582.0,                 
    1.5,                      
    80.0,                     
    No,                       
    No,                       
    No,                       
    ASHRAEClearSky,           
    ,                         
    ,                         
    ,                         
    ,                         
    0.0;                      

RunPeriod,                
    Run Period 1,             
    1,                        
    1,                        
    12,                       
    31,                       
    Sunday,                   
    No,                       
    No,                       
    No,                       
    Yes,                      
    Yes,                      
    1;                        

RunPeriodControl:DaylightSavingTime,
    2nd Sunday in March,      
    1st Sunday in November;    

SITE:GROUNDTEMPERATURE:BUILDINGSURFACE,
    8.3,                      
    6.4,                      
    5.8,                      
    6.3,                      
    8.9,                      
    11.7,                     
    14.4,                     
    16.4,                     
    17,                       
    16.1,                     
    13.8,                     
    11;                       

ScheduleTypeLimits,       
    Thermal Zone: 101 Open Plan Office Thermostat Schedule Type Limits,    
    0,                        
    4,                        
    DISCRETE;                 

ScheduleTypeLimits,       
    Temperature 5,            
    ,                         
    ,                         
    Continuous,               
    temperature;              

ScheduleTypeLimits,       
    Fractional,               
    0,                        
    1,                        
    Continuous;               

ScheduleTypeLimits,       
    Thermal Zone: 101B Office Thermostat Schedule Type Limits,    
    0,                        
    4,                        
    DISCRETE;                 

ScheduleTypeLimits,       
    Thermal Zone: 101C Office Thermostat Schedule Type Limits,    
    0,                        
    4,                        
    DISCRETE;                 

ScheduleTypeLimits,       
    Thermal Zone: 102 Admin Office Thermostat Schedule Type Limits,    
    0,                        
    4,                        
    DISCRETE;                 

ScheduleTypeLimits,       
    Thermal Zone: 103 Office Thermostat Schedule Type Limits,    
    0,                        
    4,                        
    DISCRETE;                 

ScheduleTypeLimits,       
    Thermal Zone: 104 Office Thermostat Schedule Type Limits,    
    0,                        
    4,                        
    DISCRETE;                 

ScheduleTypeLimits,       
    Thermal Zone: 105 Meeting Thermostat Schedule Type Limits,    
    0,                        
    4,                        
    DISCRETE;                 

ScheduleTypeLimits,       
    Thermal Zone: 106 Office Thermostat Schedule Type Limits,    
    0,                        
    4,                        
    DISCRETE;                 

ScheduleTypeLimits,       
    Thermal Zone: 107 Disabled WC Thermostat Schedule Type Limits,    
    0,                        
    4,                        
    DISCRETE;                 

ScheduleTypeLimits,       
    Thermal Zone: 108 Shower Thermostat Schedule Type Limits,    
    0,                        
    4,                        
    DISCRETE;                 

ScheduleTypeLimits,       
    Thermal Zone: 109 Male WC Thermostat Schedule Type Limits,    
    0,                        
    4,                        
    DISCRETE;                 

ScheduleTypeLimits,       
    Thermal Zone: 110 Kitchen Thermostat Schedule Type Limits,    
    0,                        
    4,                        
    DISCRETE;                 

ScheduleTypeLimits,       
    Thermal Zone: 111 Female WC Thermostat Schedule Type Limits,    
    0,                        
    4,                        
    DISCRETE;                 

ScheduleTypeLimits,       
    Thermal Zone: 112 Seminar Thermostat Schedule Type Limits,    
    0,                        
    4,                        
    DISCRETE;                 

ScheduleTypeLimits,       
    Thermal Zone: 113 Office Thermostat Schedule Type Limits,    
    0,                        
    4,                        
    DISCRETE;                 

ScheduleTypeLimits,       
    Thermal Zone: 114A Server Thermostat Schedule Type Limits,    
    0,                        
    4,                        
    DISCRETE;                 

ScheduleTypeLimits,       
    Thermal Zone: 195 Lift Core Thermostat Schedule Type Limits,    
    0,                        
    4,                        
    DISCRETE;                 

ScheduleTypeLimits,       
    Thermal Zone: 199 Lift Core Thermostat Schedule Type Limits,    
    0,                        
    4,                        
    DISCRETE;                 

ScheduleTypeLimits,       
    Thermal Zone: 201 Office Thermostat Schedule Type Limits,    
    0,                        
    4,                        
    DISCRETE;                 

ScheduleTypeLimits,       
    Thermal Zone: 202 Office Thermostat Schedule Type Limits,    
    0,                        
    4,                        
    DISCRETE;                 

ScheduleTypeLimits,       
    Thermal Zone: 204 Meeting Thermostat Schedule Type Limits,    
    0,                        
    4,                        
    DISCRETE;                 

ScheduleTypeLimits,       
    Thermal Zone: 205 Meeting Thermostat Schedule Type Limits,    
    0,                        
    4,                        
    DISCRETE;                 

ScheduleTypeLimits,       
    Thermal Zone: 206 Meeting Thermostat Schedule Type Limits,    
    0,                        
    4,                        
    DISCRETE;                 

ScheduleTypeLimits,       
    Thermal Zone: 208 Meeting Thermostat Schedule Type Limits,    
    0,                        
    4,                        
    DISCRETE;                 

ScheduleTypeLimits,       
    Thermal Zone: 209 Kitchen Thermostat Schedule Type Limits,    
    0,                        
    4,                        
    DISCRETE;                 

ScheduleTypeLimits,       
    Thermal Zone: 210 Disabled WC Thermostat Schedule Type Limits,    
    0,                        
    4,                        
    DISCRETE;                 

ScheduleTypeLimits,       
    Thermal Zone: 212 Kitchen Thermostat Schedule Type Limits,    
    0,                        
    4,                        
    DISCRETE;                 

ScheduleTypeLimits,       
    Thermal Zone: 213 Male WC Thermostat Schedule Type Limits,    
    0,                        
    4,                        
    DISCRETE;                 

ScheduleTypeLimits,       
    Thermal Zone: 216 Circ Thermostat Schedule Type Limits,    
    0,                        
    4,                        
    DISCRETE;                 

ScheduleTypeLimits,       
    Thermal Zone: 218 Female WC Thermostat Schedule Type Limits,    
    0,                        
    4,                        
    DISCRETE;                 

ScheduleTypeLimits,       
    Thermal Zone: 219 Office Thermostat Schedule Type Limits,    
    0,                        
    4,                        
    DISCRETE;                 

ScheduleTypeLimits,       
    Thermal Zone: 225 Office Thermostat Schedule Type Limits,    
    0,                        
    4,                        
    DISCRETE;                 

ScheduleTypeLimits,       
    Thermal Zone: 228 Resources Thermostat Schedule Type Limits,    
    0,                        
    4,                        
    DISCRETE;                 

ScheduleTypeLimits,       
    Thermal Zone: 295 Lift Core Thermostat Schedule Type Limits,    
    0,                        
    4,                        
    DISCRETE;                 

ScheduleTypeLimits,       
    Thermal Zone: 299 Lift Core Thermostat Schedule Type Limits,    
    0,                        
    4,                        
    DISCRETE;                 

ScheduleTypeLimits,       
    Thermal Zone: 301 Phd Office Thermostat Schedule Type Limits,    
    0,                        
    4,                        
    DISCRETE;                 

ScheduleTypeLimits,       
    Thermal Zone: 302 Research Office Thermostat Schedule Type Limits,    
    0,                        
    4,                        
    DISCRETE;                 

ScheduleTypeLimits,       
    Thermal Zone: 303 PhD Office Thermostat Schedule Type Limits,    
    0,                        
    4,                        
    DISCRETE;                 

ScheduleTypeLimits,       
    Thermal Zone: 304 Office Thermostat Schedule Type Limits,    
    0,                        
    4,                        
    DISCRETE;                 

ScheduleTypeLimits,       
    Thermal Zone: 305 Meeting Thermostat Schedule Type Limits,    
    0,                        
    4,                        
    DISCRETE;                 

ScheduleTypeLimits,       
    Thermal Zone: 306 Kitchen Thermostat Schedule Type Limits,    
    0,                        
    4,                        
    DISCRETE;                 

ScheduleTypeLimits,       
    Thermal Zone: 307 Office Thermostat Schedule Type Limits,    
    0,                        
    4,                        
    DISCRETE;                 

ScheduleTypeLimits,       
    Thermal Zone: 310 Disabled WC Thermostat Schedule Type Limits,    
    0,                        
    4,                        
    DISCRETE;                 

ScheduleTypeLimits,       
    Thermal Zone: 313 Male WC Thermostat Schedule Type Limits,    
    0,                        
    4,                        
    DISCRETE;                 

ScheduleTypeLimits,       
    Thermal Zone: 318 Female WC Thermostat Schedule Type Limits,    
    0,                        
    4,                        
    DISCRETE;                 

ScheduleTypeLimits,       
    Thermal Zone: 325 Office Thermostat Schedule Type Limits,    
    0,                        
    4,                        
    DISCRETE;                 

ScheduleTypeLimits,       
    Thermal Zone: 325B Office Thermostat Schedule Type Limits,    
    0,                        
    4,                        
    DISCRETE;                 

ScheduleTypeLimits,       
    Thermal Zone: 325D Office Thermostat Schedule Type Limits,    
    0,                        
    4,                        
    DISCRETE;                 

ScheduleTypeLimits,       
    Thermal Zone: 325F Print Room Thermostat Schedule Type Limits,    
    0,                        
    4,                        
    DISCRETE;                 

ScheduleTypeLimits,       
    Thermal Zone: 397 Circ Thermostat Schedule Type Limits,    
    0,                        
    4,                        
    DISCRETE;                 

ScheduleTypeLimits,       
    Thermal Zone: 399 Lift Core Thermostat Schedule Type Limits,    
    0,                        
    4,                        
    DISCRETE;                 

ScheduleTypeLimits,       
    Thermal Zone: 401 Office Thermostat Schedule Type Limits,    
    0,                        
    4,                        
    DISCRETE;                 

ScheduleTypeLimits,       
    Thermal Zone: 402 Office Thermostat Schedule Type Limits,    
    0,                        
    4,                        
    DISCRETE;                 

ScheduleTypeLimits,       
    Thermal Zone: 403 Office Thermostat Schedule Type Limits,    
    0,                        
    4,                        
    DISCRETE;                 

ScheduleTypeLimits,       
    Thermal Zone: 404 Office Thermostat Schedule Type Limits,    
    0,                        
    4,                        
    DISCRETE;                 

ScheduleTypeLimits,       
    Thermal Zone: 405 Meeting Thermostat Schedule Type Limits,    
    0,                        
    4,                        
    DISCRETE;                 

ScheduleTypeLimits,       
    Thermal Zone: 406 Office Thermostat Schedule Type Limits,    
    0,                        
    4,                        
    DISCRETE;                 

ScheduleTypeLimits,       
    Thermal Zone: 407 Office Thermostat Schedule Type Limits,    
    0,                        
    4,                        
    DISCRETE;                 

ScheduleTypeLimits,       
    Thermal Zone: 408 Office Thermostat Schedule Type Limits,    
    0,                        
    4,                        
    DISCRETE;                 

ScheduleTypeLimits,       
    Thermal Zone: 409 Office Thermostat Schedule Type Limits,    
    0,                        
    4,                        
    DISCRETE;                 

ScheduleTypeLimits,       
    Thermal Zone: 410 Kitchen Thermostat Schedule Type Limits,    
    0,                        
    4,                        
    DISCRETE;                 

ScheduleTypeLimits,       
    Thermal Zone: 411 Meeting Thermostat Schedule Type Limits,    
    0,                        
    4,                        
    DISCRETE;                 

ScheduleTypeLimits,       
    Thermal Zone: 412 Office Thermostat Schedule Type Limits,    
    0,                        
    4,                        
    DISCRETE;                 

ScheduleTypeLimits,       
    Thermal Zone: 413 Office Thermostat Schedule Type Limits,    
    0,                        
    4,                        
    DISCRETE;                 

ScheduleTypeLimits,       
    Thermal Zone: 414 Office Thermostat Schedule Type Limits,    
    0,                        
    4,                        
    DISCRETE;                 

ScheduleTypeLimits,       
    Thermal Zone: 415 Office Thermostat Schedule Type Limits,    
    0,                        
    4,                        
    DISCRETE;                 

ScheduleTypeLimits,       
    Thermal Zone: 416 Meeting Thermostat Schedule Type Limits,    
    0,                        
    4,                        
    DISCRETE;                 

ScheduleTypeLimits,       
    Thermal Zone: 417 Resources Thermostat Schedule Type Limits,    
    0,                        
    4,                        
    DISCRETE;                 

ScheduleTypeLimits,       
    Thermal Zone: 417A Server Thermostat Schedule Type Limits,    
    0,                        
    4,                        
    DISCRETE;                 

ScheduleTypeLimits,       
    Thermal Zone: 495 Lift Core Thermostat Schedule Type Limits,    
    0,                        
    4,                        
    DISCRETE;                 

ScheduleTypeLimits,       
    Thermal Zone: 497C Circ Thermostat Schedule Type Limits,    
    0,                        
    4,                        
    DISCRETE;                 

ScheduleTypeLimits,       
    Thermal Zone: 499 Lift Core Thermostat Schedule Type Limits,    
    0,                        
    4,                        
    DISCRETE;                 

ScheduleTypeLimits,       
    Thermal Zone: 501 Circulation Thermostat Schedule Type Limits,    
    0,                        
    4,                        
    DISCRETE;                 

ScheduleTypeLimits,       
    Thermal Zone: 502 Server Thermostat Schedule Type Limits,    
    0,                        
    4,                        
    DISCRETE;                 

ScheduleTypeLimits,       
    Thermal Zone: 503 Office Thermostat Schedule Type Limits,    
    0,                        
    4,                        
    DISCRETE;                 

ScheduleTypeLimits,       
    Thermal Zone: 504 Office Thermostat Schedule Type Limits,    
    0,                        
    4,                        
    DISCRETE;                 

ScheduleTypeLimits,       
    Thermal Zone: 505 Office Thermostat Schedule Type Limits,    
    0,                        
    4,                        
    DISCRETE;                 

ScheduleTypeLimits,       
    Thermal Zone: 506 Office Thermostat Schedule Type Limits,    
    0,                        
    4,                        
    DISCRETE;                 

ScheduleTypeLimits,       
    Thermal Zone: 507 Office Thermostat Schedule Type Limits,    
    0,                        
    4,                        
    DISCRETE;                 

ScheduleTypeLimits,       
    Thermal Zone: 508 Office Thermostat Schedule Type Limits,    
    0,                        
    4,                        
    DISCRETE;                 

ScheduleTypeLimits,       
    Thermal Zone: 509 Office Thermostat Schedule Type Limits,    
    0,                        
    4,                        
    DISCRETE;                 

ScheduleTypeLimits,       
    Thermal Zone: 510 Office Thermostat Schedule Type Limits,    
    0,                        
    4,                        
    DISCRETE;                 

ScheduleTypeLimits,       
    Thermal Zone: 511 Kitchen Thermostat Schedule Type Limits,    
    0,                        
    4,                        
    DISCRETE;                 

ScheduleTypeLimits,       
    Thermal Zone: 517 Office Thermostat Schedule Type Limits,    
    0,                        
    4,                        
    DISCRETE;                 

ScheduleTypeLimits,       
    Thermal Zone: 518 Admin Thermostat Schedule Type Limits,    
    0,                        
    4,                        
    DISCRETE;                 

ScheduleTypeLimits,       
    Thermal Zone: 519 Student Hub Thermostat Schedule Type Limits,    
    0,                        
    4,                        
    DISCRETE;                 

ScheduleTypeLimits,       
    Thermal Zone: 520 Circulation Thermostat Schedule Type Limits,    
    0,                        
    4,                        
    DISCRETE;                 

ScheduleTypeLimits,       
    Thermal Zone: 521 Office Thermostat Schedule Type Limits,    
    0,                        
    4,                        
    DISCRETE;                 

ScheduleTypeLimits,       
    Thermal Zone: 522 Office Thermostat Schedule Type Limits,    
    0,                        
    4,                        
    DISCRETE;                 

ScheduleTypeLimits,       
    Thermal Zone: 523 Office Thermostat Schedule Type Limits,    
    0,                        
    4,                        
    DISCRETE;                 

ScheduleTypeLimits,       
    Thermal Zone: 524 Office Thermostat Schedule Type Limits,    
    0,                        
    4,                        
    DISCRETE;                 

ScheduleTypeLimits,       
    Thermal Zone: 525 Office Thermostat Schedule Type Limits,    
    0,                        
    4,                        
    DISCRETE;                 

ScheduleTypeLimits,       
    Thermal Zone: 526 Office Thermostat Schedule Type Limits,    
    0,                        
    4,                        
    DISCRETE;                 

ScheduleTypeLimits,       
    Thermal Zone: 527 Office Thermostat Schedule Type Limits,    
    0,                        
    4,                        
    DISCRETE;                 

ScheduleTypeLimits,       
    Thermal Zone: 528 Office Thermostat Schedule Type Limits,    
    0,                        
    4,                        
    DISCRETE;                 

ScheduleTypeLimits,       
    Thermal Zone: 599 Stair B Thermostat Schedule Type Limits,    
    0,                        
    4,                        
    DISCRETE;                 

ScheduleTypeLimits,       
    Thermal Zone: 601 PhD Area Thermostat Schedule Type Limits,    
    0,                        
    4,                        
    DISCRETE;                 

ScheduleTypeLimits,       
    Thermal Zone: 602 Office Thermostat Schedule Type Limits,    
    0,                        
    4,                        
    DISCRETE;                 

ScheduleTypeLimits,       
    Thermal Zone: 603 Office Thermostat Schedule Type Limits,    
    0,                        
    4,                        
    DISCRETE;                 

ScheduleTypeLimits,       
    Thermal Zone: 604 Office Thermostat Schedule Type Limits,    
    0,                        
    4,                        
    DISCRETE;                 

ScheduleTypeLimits,       
    Thermal Zone: 606 Kitchen Thermostat Schedule Type Limits,    
    0,                        
    4,                        
    DISCRETE;                 

ScheduleTypeLimits,       
    Thermal Zone: 607 Female WC Thermostat Schedule Type Limits,    
    0,                        
    4,                        
    DISCRETE;                 

ScheduleTypeLimits,       
    Thermal Zone: 608 Male WC Thermostat Schedule Type Limits,    
    0,                        
    4,                        
    DISCRETE;                 

ScheduleTypeLimits,       
    Thermal Zone: 609 Shower Thermostat Schedule Type Limits,    
    0,                        
    4,                        
    DISCRETE;                 

ScheduleTypeLimits,       
    Thermal Zone: 610 Disabled WC Thermostat Schedule Type Limits,    
    0,                        
    4,                        
    DISCRETE;                 

ScheduleTypeLimits,       
    Thermal Zone: 611 Office Thermostat Schedule Type Limits,    
    0,                        
    4,                        
    DISCRETE;                 

ScheduleTypeLimits,       
    Thermal Zone: 612 Office Thermostat Schedule Type Limits,    
    0,                        
    4,                        
    DISCRETE;                 

ScheduleTypeLimits,       
    Thermal Zone: 613 Office Thermostat Schedule Type Limits,    
    0,                        
    4,                        
    DISCRETE;                 

ScheduleTypeLimits,       
    Thermal Zone: 615 Server Thermostat Schedule Type Limits,    
    0,                        
    4,                        
    DISCRETE;                 

ScheduleTypeLimits,       
    Thermal Zone: 616 Office Thermostat Schedule Type Limits,    
    0,                        
    4,                        
    DISCRETE;                 

ScheduleTypeLimits,       
    Thermal Zone: 617 Office Thermostat Schedule Type Limits,    
    0,                        
    4,                        
    DISCRETE;                 

ScheduleTypeLimits,       
    Thermal Zone: 618 Office Thermostat Schedule Type Limits,    
    0,                        
    4,                        
    DISCRETE;                 

ScheduleTypeLimits,       
    Thermal Zone: 619 Office Thermostat Schedule Type Limits,    
    0,                        
    4,                        
    DISCRETE;                 

ScheduleTypeLimits,       
    Thermal Zone: 620 Office Thermostat Schedule Type Limits,    
    0,                        
    4,                        
    DISCRETE;                 

ScheduleTypeLimits,       
    Thermal Zone: 621 Office Thermostat Schedule Type Limits,    
    0,                        
    4,                        
    DISCRETE;                 

ScheduleTypeLimits,       
    Thermal Zone: 622 Office Thermostat Schedule Type Limits,    
    0,                        
    4,                        
    DISCRETE;                 

ScheduleTypeLimits,       
    Thermal Zone: 692 Circulation Thermostat Schedule Type Limits,    
    0,                        
    4,                        
    DISCRETE;                 

ScheduleTypeLimits,       
    Thermal Zone: G01 Seminar Thermostat Schedule Type Limits,    
    0,                        
    4,                        
    DISCRETE;                 

ScheduleTypeLimits,       
    Thermal Zone: G03 Tea Point Thermostat Schedule Type Limits,    
    0,                        
    4,                        
    DISCRETE;                 

ScheduleTypeLimits,       
    Thermal Zone: G05 Meeting Thermostat Schedule Type Limits,    
    0,                        
    4,                        
    DISCRETE;                 

ScheduleTypeLimits,       
    Thermal Zone: G06 Library Office Thermostat Schedule Type Limits,    
    0,                        
    4,                        
    DISCRETE;                 

ScheduleTypeLimits,       
    Thermal Zone: G07 Reception Thermostat Schedule Type Limits,    
    0,                        
    4,                        
    DISCRETE;                 

ScheduleTypeLimits,       
    Thermal Zone: G08 Meeting Thermostat Schedule Type Limits,    
    0,                        
    4,                        
    DISCRETE;                 

ScheduleTypeLimits,       
    Thermal Zone: G09 GroupStudy Thermostat Schedule Type Limits,    
    0,                        
    4,                        
    DISCRETE;                 

ScheduleTypeLimits,       
    Thermal Zone: G11 Study room Thermostat Schedule Type Limits,    
    0,                        
    4,                        
    DISCRETE;                 

ScheduleTypeLimits,       
    Thermal Zone: G11A Server Thermostat Schedule Type Limits,    
    0,                        
    4,                        
    DISCRETE;                 

ScheduleTypeLimits,       
    Thermal Zone: G12 Store Thermostat Schedule Type Limits,    
    0,                        
    4,                        
    DISCRETE;                 

ScheduleTypeLimits,       
    Thermal Zone: G16 Library Thermostat Schedule Type Limits,    
    0,                        
    4,                        
    DISCRETE;                 

ScheduleTypeLimits,       
    Thermal Zone: G92 Reception Thermostat Schedule Type Limits,    
    0,                        
    4,                        
    DISCRETE;                 

ScheduleTypeLimits,       
    Thermal Zone: LG01 Thermostat Schedule Type Limits,    
    0,                        
    4,                        
    DISCRETE;                 

ScheduleTypeLimits,       
    Thermal Zone: LG02 Thermostat Schedule Type Limits,    
    0,                        
    4,                        
    DISCRETE;                 

ScheduleTypeLimits,       
    Thermal Zone: LG03 Thermostat Schedule Type Limits,    
    0,                        
    4,                        
    DISCRETE;                 

ScheduleTypeLimits,       
    Thermal Zone: LG04 Thermostat Schedule Type Limits,    
    0,                        
    4,                        
    DISCRETE;                 

ScheduleTypeLimits,       
    Thermal Zone: LG05 IT Cluster Thermostat Schedule Type Limits,    
    0,                        
    4,                        
    DISCRETE;                 

ScheduleTypeLimits,       
    Thermal Zone: LG06 Thermostat Schedule Type Limits,    
    0,                        
    4,                        
    DISCRETE;                 

ScheduleTypeLimits,       
    Thermal Zone: LG07 Office Thermostat Schedule Type Limits,    
    0,                        
    4,                        
    DISCRETE;                 

ScheduleTypeLimits,       